LAMMPS (29 Aug 2024)

# LAMMPS input generated from LammpsInputFile with pymatgen v2025.10.7

# STYLES
units metal
atom_style atomic

# SET UP CALCULATION
read_data starting_config.dat
Reading data file ...
  orthogonal box = (0 0 0) to (21.77481 21.77481 21.77481)
  reading atoms ...
  511 atoms

# ---------- create 4 additional vacancies (total 5) ----------
# choose any 4 distinct atom IDs between 1 and 511
group         extra_vacs id 50 150 250 350
4 atoms in group extra_vacs
delete_atoms  group extra_vacs
Deleted 4 atoms, new total = 507
# LAMMPS will print "Deleted 4 atoms" and new total = 507
# -----------------------------------------------------------
pair_style sw
pair_coeff * * Si.sw Si
Reading sw potential file Si.sw with DATE: 2007-06-11
velocity all create 1000 2201697

# CALCULATION PARAMETERS
fix f1 all nvt temp 1000.0 1000.0 $(100.0*dt)
fix f1 all nvt temp 1000.0 1000.0 0.10000000000000000555
thermo 10000

# RUN CALC AND WRITE OUTPUTS
dump d1 all custom 100 state_dump id type x y z vx vy vz
run 10000000

CITE-CITE-CITE-CITE-CITE-CITE-CITE-CITE-CITE-CITE-CITE-CITE-CITE

Your simulation uses code contributions which should be cited:

- Type Label Framework: https://doi.org/10.1021/acs.jpcb.3c08419

@Article{Gissinger24,
 author = {Jacob R. Gissinger, Ilia Nikiforov, Yaser Afshar, Brendon Waters, Moon-ki Choi, Daniel S. Karls, Alexander Stukowski, Wonpil Im, Hendrik Heinz, Axel Kohlmeyer, and Ellad B. Tadmor},
 title = {Type Label Framework for Bonded Force Fields in LAMMPS},
 journal = {J. Phys. Chem. B},
 year =    2024,
 volume =  128,
 number =  13,
 pages =   {3282â€“-3297}
}

CITE-CITE-CITE-CITE-CITE-CITE-CITE-CITE-CITE-CITE-CITE-CITE-CITE

Step          Temp          E_pair         E_mol          TotEng         Press
0   1000          -2176.816       0             -2111.4104     -158.69833
Averages over the last 501 of 1001 rows, steps 5000000 to 10000000:
Temp E_pair E_mol TotEng Press
1001.21 -2120.85 0 -2055.37 -6810.21
Loop time of 26547.4 on 1 procs for 10000000 steps with 507 atoms

write_data FINAL_STRUCTURE
System init for write_data ...
