LAMMPS (29 Aug 2024)
# LAMMPS input generated from LammpsInputFile with pymatgen v2025.10.7

# STYLES
units metal
atom_style atomic

# SET UP CALCULATION
read_data starting_config.dat
Reading data file ...
  orthogonal box = (0 0 0) to (21.77481 21.77481 21.77481)
  reading atoms ...
  511 atoms
# ----- create 9 additional vacancies (total 10) -----
# starting_config.dat already has 1 vacancy → 512 − 10 = 502 atoms
variable      Nv equal 9
delete_atoms  random count 9 no all NULL 34567
Deleted 9 atoms, new total = 502
# ----------------------------------------------------

pair_style sw
pair_coeff * * Si.sw Si
Reading sw potential file Si.sw with DATE: 2007-06-11
velocity all create 1000 2201697

# CALCULATION PARAMETERS
fix f1 all nvt temp 1000.0 1000.0 $(100.0*dt)
fix f1 all nvt temp 1000.0 1000.0 0.10000000000000000555
thermo 10000

# RUN CALC AND WRITE OUTPUTS
dump d1 all custom 100 state_dump id type x y z vx vy vz
run 10000000

CITE-CITE-CITE-CITE-CITE-CITE-CITE-CITE-CITE-CITE-CITE-CITE-CITE

Your simulation uses code contributions which should be cited:

- Type Label Framework: https://doi.org/10.1021/acs.jpcb.3c08419

@Article{Gissinger24,
 author = {Jacob R. Gissinger, Ilia Nikiforov, Yaser Afshar, Brendon Waters, Moon-ki Choi, Daniel S. Karls, Alexander Stukowski, Wonpil Im, Hendrik Heinz, Axel Kohlmeyer, and Ellad B. Tadmor},
 title = {Type Label Framework for Bonded Force Fields in LAMMPS},
 journal = {J. Phys. Chem. B},
 year =    2024,
 volume =  128,
 number =  13,
 pages =   {3282–-3297}
}

CITE-CITE-CITE-CITE-CITE-CITE-CITE-CITE-CITE-CITE-CITE-CITE-CITE

Step          Temp          E_pair         E_mol          TotEng         Press
0   1000          -2133.4532      0             -2068.6938     -87.603075
Averages over the last 501 of 1001 rows, steps 5000000 to 10000000:
Temp E_pair E_mol TotEng Press
998.616 -2090.53 0 -2025.86 -15726.3
Loop time of 4262.3 on 1 procs for 10000000 steps with 502 atoms

write_data FINAL_STRUCTURE
System init for write_data ...
